
 OpenBabel03241521253D

 57 60  0  0  0  0  0  0  0  0999 V2000
    2.5644    4.4652   -8.3158 C   0  0  0  0  0  0  0  0  0  0  0  0
    3.3527    5.4358   -7.6723 C   0  0  0  0  0  0  0  0  0  0  0  0
    3.3220    5.5352   -6.2757 C   0  0  0  0  0  0  0  0  0  0  0  0
    2.5143    4.6797   -5.5176 C   0  0  0  0  0  0  0  0  0  0  0  0
    1.7302    3.7126   -6.1680 C   0  0  0  0  0  0  0  0  0  0  0  0
    1.7387    3.5821   -7.5795 C   0  0  0  0  0  0  0  0  0  0  0  0
    0.8851    2.5354   -8.2773 C   0  0  0  0  0  0  0  0  0  0  0  0
    0.2807    1.4905   -7.5544 C   0  0  0  0  0  0  0  0  0  0  0  0
   -0.5403    0.5225   -8.1695 C   0  0  0  0  0  0  0  0  0  0  0  0
   -0.7361    0.5536   -9.5839 C   0  0  0  0  0  0  0  0  0  0  0  0
   -0.1150    1.6037  -10.2997 C   0  0  0  0  0  0  0  0  0  0  0  0
    0.6654    2.5696   -9.6657 C   0  0  0  0  0  0  0  0  0  0  0  0
   -1.5673   -0.4746  -10.3483 C   0  0  0  0  0  0  0  0  0  0  0  0
   -2.5866   -1.2428   -9.7329 C   0  0  0  0  0  0  0  0  0  0  0  0
   -3.3257   -2.1955  -10.4587 C   0  0  0  0  0  0  0  0  0  0  0  0
   -3.0633   -2.3818  -11.8208 C   0  0  0  0  0  0  0  0  0  0  0  0
   -2.0744   -1.6311  -12.4646 C   0  0  0  0  0  0  0  0  0  0  0  0
   -1.3337   -0.6895  -11.7303 C   0  0  0  0  0  0  0  0  0  0  0  0
   -1.8105   -1.8355  -13.9137 C   0  0  0  0  0  0  0  0  0  0  0  0
   -2.5294   -2.7401  -14.6141 O   0  0  0  0  0  0  0  0  0  0  0  0
   -2.3744   -2.8800  -15.5592 H   0  0  0  0  0  0  0  0  0  0  0  0
   -0.9476   -1.1817  -14.4825 O   0  0  0  0  0  0  0  0  0  0  0  0
   -4.3801   -3.0040   -9.7908 C   0  0  0  0  0  0  0  0  0  0  0  0
   -5.0739   -3.9272  -10.4926 O   0  0  0  0  0  0  0  0  0  0  0  0
   -5.7542   -4.4712  -10.0709 H   0  0  0  0  0  0  0  0  0  0  0  0
   -4.6165   -2.8494   -8.6011 O   0  0  0  0  0  0  0  0  0  0  0  0
   -1.0925   -0.5240   -7.3682 N   0  0  0  0  0  0  0  0  0  0  0  0
   -1.5080   -0.4010   -6.1863 N   0  0  0  0  0  0  0  0  0  0  0  0
   -1.8285    0.8338   -5.5323 C   0  0  0  0  0  0  0  0  0  0  0  0
   -1.6159    0.9459   -4.1472 C   0  0  0  0  0  0  0  0  0  0  0  0
   -1.9146    2.1479   -3.4849 C   0  0  0  0  0  0  0  0  0  0  0  0
   -2.4329    3.2326   -4.1948 C   0  0  0  0  0  0  0  0  0  0  0  0
   -2.6681    3.1221   -5.5657 C   0  0  0  0  0  0  0  0  0  0  0  0
   -2.3764    1.9300   -6.2343 C   0  0  0  0  0  0  0  0  0  0  0  0
    2.4869    4.7993   -4.0356 C   0  0  0  0  0  0  0  0  0  0  0  0
    3.2444    5.7303   -3.4153 O   0  0  0  0  0  0  0  0  0  0  0  0
    3.2389    5.8194   -2.4516 H   0  0  0  0  0  0  0  0  0  0  0  0
    1.7810    4.0558   -3.3688 O   0  0  0  0  0  0  0  0  0  0  0  0
    4.2158    6.3523   -8.4626 C   0  0  0  0  0  0  0  0  0  0  0  0
    4.9691    7.2832   -7.8370 O   0  0  0  0  0  0  0  0  0  0  0  0
    5.5348    7.8888   -8.3367 H   0  0  0  0  0  0  0  0  0  0  0  0
    4.2483    6.2717   -9.6824 O   0  0  0  0  0  0  0  0  0  0  0  0
    2.6198    4.4059   -9.3887 H   0  0  0  0  0  0  0  0  0  0  0  0
    3.9275    6.2818   -5.7772 H   0  0  0  0  0  0  0  0  0  0  0  0
    1.1093    3.0852   -5.5537 H   0  0  0  0  0  0  0  0  0  0  0  0
    0.4537    1.3916   -6.5008 H   0  0  0  0  0  0  0  0  0  0  0  0
   -0.2437    1.7124  -11.3641 H   0  0  0  0  0  0  0  0  0  0  0  0
    1.0795    3.3442  -10.2877 H   0  0  0  0  0  0  0  0  0  0  0  0
   -2.8425   -1.1055   -8.7012 H   0  0  0  0  0  0  0  0  0  0  0  0
   -3.6325   -3.1123  -12.3825 H   0  0  0  0  0  0  0  0  0  0  0  0
   -0.5612   -0.1469  -12.2493 H   0  0  0  0  0  0  0  0  0  0  0  0
   -1.1133   -0.1012   -3.4603 O   0  0  0  0  0  0  0  0  0  0  0  0
   -1.7425    2.2412   -2.4199 H   0  0  0  0  0  0  0  0  0  0  0  0
   -2.6586    4.1579   -3.6803 H   0  0  0  0  0  0  0  0  0  0  0  0
   -3.0786    3.9616   -6.1119 H   0  0  0  0  0  0  0  0  0  0  0  0
   -2.5789    1.8658   -7.2944 H   0  0  0  0  0  0  0  0  0  0  0  0
   -0.9543   -0.0557   -2.5066 H   0  0  0  0  0  0  0  0  0  0  0  0
  1  2  2  0  0  0  0
  1  6  1  0  0  0  0
  1 43  1  0  0  0  0
  2  3  1  0  0  0  0
  2 39  1  0  0  0  0
  3  4  2  0  0  0  0
  3 44  1  0  0  0  0
  4  5  1  0  0  0  0
  4 35  1  0  0  0  0
  5  6  2  0  0  0  0
  5 45  1  0  0  0  0
  6  7  1  0  0  0  0
  7  8  2  0  0  0  0
  7 12  1  0  0  0  0
  8  9  1  0  0  0  0
  8 46  1  0  0  0  0
  9 10  2  0  0  0  0
  9 27  1  0  0  0  0
 10 11  1  0  0  0  0
 10 13  1  0  0  0  0
 11 12  2  0  0  0  0
 11 47  1  0  0  0  0
 12 48  1  0  0  0  0
 13 14  2  0  0  0  0
 13 18  1  0  0  0  0
 14 15  1  0  0  0  0
 14 49  1  0  0  0  0
 15 16  2  0  0  0  0
 15 23  1  0  0  0  0
 16 17  1  0  0  0  0
 16 50  1  0  0  0  0
 17 18  2  0  0  0  0
 17 19  1  0  0  0  0
 18 51  1  0  0  0  0
 19 20  1  0  0  0  0
 19 22  2  0  0  0  0
 20 21  1  0  0  0  0
 23 24  1  0  0  0  0
 23 26  2  0  0  0  0
 24 25  1  0  0  0  0
 27 28  2  0  0  0  0
 28 29  1  0  0  0  0
 29 30  2  0  0  0  0
 29 34  1  0  0  0  0
 30 31  1  0  0  0  0
 30 52  1  0  0  0  0
 31 32  2  0  0  0  0
 31 53  1  0  0  0  0
 32 33  1  0  0  0  0
 32 54  1  0  0  0  0
 33 34  2  0  0  0  0
 33 55  1  0  0  0  0
 34 56  1  0  0  0  0
 35 36  1  0  0  0  0
 35 38  2  0  0  0  0
 36 37  1  0  0  0  0
 39 40  1  0  0  0  0
 39 42  2  0  0  0  0
 40 41  1  0  0  0  0
 52 57  1  0  0  0  0
M  END
