
 OpenBabel04071608583D

 24 25  0  0  0  0  0  0  0  0999 V2000
   -2.5608    0.8003   -0.3830 C   0  0  0  0  0  0  0  0  0  0  0  0
   -1.7595    1.9377   -0.2520 C   0  0  0  0  0  0  0  0  0  0  0  0
   -0.3733    1.8079   -0.1190 C   0  0  0  0  0  0  0  0  0  0  0  0
    0.2193    0.5292   -0.1124 C   0  0  0  0  0  0  0  0  0  0  0  0
   -0.5928   -0.6054   -0.2411 C   0  0  0  0  0  0  0  0  0  0  0  0
   -1.9780   -0.4700   -0.3787 C   0  0  0  0  0  0  0  0  0  0  0  0
    4.6474    2.2697   -0.0261 C   0  0  0  0  0  0  0  0  0  0  0  0
    3.8009    1.1726    0.1819 C   0  0  0  0  0  0  0  0  0  0  0  0
    4.3543   -0.0632    0.5727 C   0  0  0  0  0  0  0  0  0  0  0  0
    5.7358   -0.1880    0.7509 C   0  0  0  0  0  0  0  0  0  0  0  0
    6.5723    0.9111    0.5380 C   0  0  0  0  0  0  0  0  0  0  0  0
    6.0288    2.1384    0.1487 C   0  0  0  0  0  0  0  0  0  0  0  0
    1.6224    0.3618    0.0269 N   0  0  0  0  0  0  0  0  0  0  0  0
    2.4023    1.3351   -0.0019 N   0  0  0  0  0  0  0  0  0  0  0  0
    4.2343    3.2243   -0.3277 H   0  0  0  0  0  0  0  0  0  0  0  0
    6.6778    2.9886   -0.0171 H   0  0  0  0  0  0  0  0  0  0  0  0
    7.6413    0.8120    0.6750 H   0  0  0  0  0  0  0  0  0  0  0  0
    6.1579   -1.1372    1.0548 H   0  0  0  0  0  0  0  0  0  0  0  0
    3.7203   -0.9238    0.7437 H   0  0  0  0  0  0  0  0  0  0  0  0
    0.2327    2.6990   -0.0166 H   0  0  0  0  0  0  0  0  0  0  0  0
   -2.2126    2.9207   -0.2529 H   0  0  0  0  0  0  0  0  0  0  0  0
   -3.6332    0.9030   -0.4872 H   0  0  0  0  0  0  0  0  0  0  0  0
   -2.5995   -1.3501   -0.4814 H   0  0  0  0  0  0  0  0  0  0  0  0
   -0.1491   -1.5933   -0.2386 H   0  0  0  0  0  0  0  0  0  0  0  0
  1  2  2  0  0  0  0
  1  6  1  0  0  0  0
  1 22  1  0  0  0  0
  2  3  1  0  0  0  0
  2 21  1  0  0  0  0
  3  4  2  0  0  0  0
  3 20  1  0  0  0  0
  4  5  1  0  0  0  0
  4 13  1  0  0  0  0
  5 24  1  0  0  0  0
  6  5  2  0  0  0  0
  6 23  1  0  0  0  0
  7  8  2  0  0  0  0
  7 15  1  0  0  0  0
  8  9  1  0  0  0  0
  9 10  2  0  0  0  0
  9 19  1  0  0  0  0
 10 11  1  0  0  0  0
 10 18  1  0  0  0  0
 11 12  2  0  0  0  0
 11 17  1  0  0  0  0
 12  7  1  0  0  0  0
 12 16  1  0  0  0  0
 13 14  2  0  0  0  0
 14  8  1  0  0  0  0
M  END
