
 OpenBabel10101518163D

 58 61  0  0  0  0  0  0  0  0999 V2000
    8.9727   12.9195  -17.5536 C   0  0  0  0  0  0  0  0  0  0  0  0
    9.8112   13.8248  -16.8771 C   0  0  0  0  0  0  0  0  0  0  0  0
    9.8170   13.8498  -15.4774 C   0  0  0  0  0  0  0  0  0  0  0  0
    8.9962   12.9865  -14.7467 C   0  0  0  0  0  0  0  0  0  0  0  0
    8.1604   12.0869  -15.4279 C   0  0  0  0  0  0  0  0  0  0  0  0
    8.1306   12.0263  -16.8478 C   0  0  0  0  0  0  0  0  0  0  0  0
    7.2575   11.0123  -17.5841 C   0  0  0  0  0  0  0  0  0  0  0  0
    6.5473   10.0279  -16.8793 C   0  0  0  0  0  0  0  0  0  0  0  0
    5.7892    9.0358  -17.5250 C   0  0  0  0  0  0  0  0  0  0  0  0
    5.7040    8.9911  -18.9518 C   0  0  0  0  0  0  0  0  0  0  0  0
    6.3986   10.0119  -19.6511 C   0  0  0  0  0  0  0  0  0  0  0  0
    7.1521   10.9890  -18.9891 C   0  0  0  0  0  0  0  0  0  0  0  0
    4.9378    7.8960  -19.7358 C   0  0  0  0  0  0  0  0  0  0  0  0
    4.0353    6.9799  -19.1206 C   0  0  0  0  0  0  0  0  0  0  0  0
    3.4090    5.9498  -19.8429 C   0  0  0  0  0  0  0  0  0  0  0  0
    3.6393    5.8330  -21.2130 C   0  0  0  0  0  0  0  0  0  0  0  0
    4.4880    6.7281  -21.8691 C   0  0  0  0  0  0  0  0  0  0  0  0
    5.1352    7.7412  -21.1353 C   0  0  0  0  0  0  0  0  0  0  0  0
    4.7083    6.5931  -23.3329 C   0  0  0  0  0  0  0  0  0  0  0  0
    4.0829    5.6152  -24.0251 O   0  0  0  0  0  0  0  0  0  0  0  0
    4.2072    5.5170  -24.9796 H   0  0  0  0  0  0  0  0  0  0  0  0
    5.4463    7.3701  -23.9212 O   0  0  0  0  0  0  0  0  0  0  0  0
    2.5185    4.9740  -19.1530 C   0  0  0  0  0  0  0  0  0  0  0  0
    1.9765    3.9447  -19.8406 O   0  0  0  0  0  0  0  0  0  0  0  0
    1.4273    3.2812  -19.3985 H   0  0  0  0  0  0  0  0  0  0  0  0
    2.3002    5.0757  -17.9540 O   0  0  0  0  0  0  0  0  0  0  0  0
    5.1623    8.0568  -16.7266 N   0  0  0  0  0  0  0  0  0  0  0  0
    4.9491    8.2176  -15.5106 N   0  0  0  0  0  0  0  0  0  0  0  0
    4.3433    7.1939  -14.7466 C   0  0  0  0  0  0  0  0  0  0  0  0
    3.8926    7.4758  -13.4535 C   0  0  0  0  0  0  0  0  0  0  0  0
    3.2852    6.4753  -12.6899 C   0  0  0  0  0  0  0  0  0  0  0  0
    3.1303    5.1823  -13.2178 C   0  0  0  0  0  0  0  0  0  0  0  0
    3.5843    4.9021  -14.5118 C   0  0  0  0  0  0  0  0  0  0  0  0
    4.1858    5.8992  -15.2729 C   0  0  0  0  0  0  0  0  0  0  0  0
    9.0201   13.0147  -13.2587 C   0  0  0  0  0  0  0  0  0  0  0  0
    9.8414   13.8677  -12.6082 O   0  0  0  0  0  0  0  0  0  0  0  0
    9.8755   13.8898  -11.6411 H   0  0  0  0  0  0  0  0  0  0  0  0
    8.3056   12.2594  -12.6147 O   0  0  0  0  0  0  0  0  0  0  0  0
   10.6994   14.7427  -17.6360 C   0  0  0  0  0  0  0  0  0  0  0  0
   11.5139   15.5961  -16.9774 O   0  0  0  0  0  0  0  0  0  0  0  0
   12.1037   16.1961  -17.4554 H   0  0  0  0  0  0  0  0  0  0  0  0
   10.7040   14.7276  -18.8586 O   0  0  0  0  0  0  0  0  0  0  0  0
    9.0073   12.9177  -18.6275 H   0  0  0  0  0  0  0  0  0  0  0  0
   10.4660   14.5411  -14.9544 H   0  0  0  0  0  0  0  0  0  0  0  0
    7.5498   11.4459  -14.8228 H   0  0  0  0  0  0  0  0  0  0  0  0
    6.5940    9.9779  -15.8115 H   0  0  0  0  0  0  0  0  0  0  0  0
    6.3810   10.0817  -20.7225 H   0  0  0  0  0  0  0  0  0  0  0  0
    7.6515   11.7127  -19.6081 H   0  0  0  0  0  0  0  0  0  0  0  0
    3.7864    7.0262  -18.0904 H   0  0  0  0  0  0  0  0  0  0  0  0
    3.1538    5.0422  -21.7718 H   0  0  0  0  0  0  0  0  0  0  0  0
    5.8028    8.3814  -21.6787 H   0  0  0  0  0  0  0  0  0  0  0  0
    4.0072    8.4721  -13.0429 H   0  0  0  0  0  0  0  0  0  0  0  0
    2.9371    6.7076  -11.6915 H   0  0  0  0  0  0  0  0  0  0  0  0
    2.4883    4.0958  -12.4161 N   0  0  0  0  0  0  0  0  0  0  0  0
    3.4725    3.9097  -14.9303 H   0  0  0  0  0  0  0  0  0  0  0  0
    4.5335    5.6595  -16.2689 H   0  0  0  0  0  0  0  0  0  0  0  0
    2.2030    4.4798  -11.4589 O   0  0  0  0  0  0  0  0  0  0  0  0
    1.6205    3.7385  -12.9300 O   0  0  0  0  0  0  0  0  0  0  0  0
  1  2  2  0  0  0  0
  1  6  1  0  0  0  0
  1 43  1  0  0  0  0
  2  3  1  0  0  0  0
  2 39  1  0  0  0  0
  3  4  2  0  0  0  0
  3 44  1  0  0  0  0
  4  5  1  0  0  0  0
  4 35  1  0  0  0  0
  5  6  2  0  0  0  0
  5 45  1  0  0  0  0
  6  7  1  0  0  0  0
  7  8  2  0  0  0  0
  7 12  1  0  0  0  0
  8  9  1  0  0  0  0
  8 46  1  0  0  0  0
  9 10  2  0  0  0  0
  9 27  1  0  0  0  0
 10 11  1  0  0  0  0
 10 13  1  0  0  0  0
 11 12  2  0  0  0  0
 11 47  1  0  0  0  0
 12 48  1  0  0  0  0
 13 14  2  0  0  0  0
 13 18  1  0  0  0  0
 14 15  1  0  0  0  0
 14 49  1  0  0  0  0
 15 16  2  0  0  0  0
 15 23  1  0  0  0  0
 16 17  1  0  0  0  0
 16 50  1  0  0  0  0
 17 18  2  0  0  0  0
 17 19  1  0  0  0  0
 18 51  1  0  0  0  0
 19 20  1  0  0  0  0
 19 22  2  0  0  0  0
 20 21  1  0  0  0  0
 23 24  1  0  0  0  0
 23 26  2  0  0  0  0
 24 25  1  0  0  0  0
 27 28  2  0  0  0  0
 28 29  1  0  0  0  0
 29 30  2  0  0  0  0
 29 34  1  0  0  0  0
 30 31  1  0  0  0  0
 30 52  1  0  0  0  0
 31 32  2  0  0  0  0
 31 53  1  0  0  0  0
 32 33  1  0  0  0  0
 32 54  1  0  0  0  0
 33 34  2  0  0  0  0
 33 55  1  0  0  0  0
 34 56  1  0  0  0  0
 35 36  1  0  0  0  0
 35 38  2  0  0  0  0
 36 37  1  0  0  0  0
 39 40  1  0  0  0  0
 39 42  2  0  0  0  0
 40 41  1  0  0  0  0
 54 57  1  0  0  0  0
 54 58  1  0  0  0  0
M  END
