
 OpenBabel03101611073D

 58 61  0  0  0  0  0  0  0  0999 V2000
    4.0546    7.3128  -12.7285 C   0  0  0  0  0  0  0  0  0  0  0  0
    4.8873    8.2322  -12.0637 C   0  0  0  0  0  0  0  0  0  0  0  0
    4.8939    8.2720  -10.6649 C   0  0  0  0  0  0  0  0  0  0  0  0
    4.0802    7.4095   -9.9241 C   0  0  0  0  0  0  0  0  0  0  0  0
    3.2502    6.4948  -10.5940 C   0  0  0  0  0  0  0  0  0  0  0  0
    3.2190    6.4190  -12.0111 C   0  0  0  0  0  0  0  0  0  0  0  0
    2.3492    5.3914  -12.7340 C   0  0  0  0  0  0  0  0  0  0  0  0
    1.6476    4.3969  -12.0246 C   0  0  0  0  0  0  0  0  0  0  0  0
    0.8887    3.3990  -12.6714 C   0  0  0  0  0  0  0  0  0  0  0  0
    0.8026    3.3676  -14.1014 C   0  0  0  0  0  0  0  0  0  0  0  0
    1.4882    4.3956  -14.7967 C   0  0  0  0  0  0  0  0  0  0  0  0
    2.2364    5.3720  -14.1365 C   0  0  0  0  0  0  0  0  0  0  0  0
    0.0387    2.2876  -14.8993 C   0  0  0  0  0  0  0  0  0  0  0  0
   -0.8926    1.3940  -14.3018 C   0  0  0  0  0  0  0  0  0  0  0  0
   -1.5309    0.3824  -15.0402 C   0  0  0  0  0  0  0  0  0  0  0  0
   -1.2763    0.2614  -16.4069 C   0  0  0  0  0  0  0  0  0  0  0  0
   -0.3936    1.1360  -17.0447 C   0  0  0  0  0  0  0  0  0  0  0  0
    0.2614    2.1313  -16.2957 C   0  0  0  0  0  0  0  0  0  0  0  0
   -0.1494    1.0016  -18.5054 C   0  0  0  0  0  0  0  0  0  0  0  0
   -0.7845    0.0415  -19.2136 O   0  0  0  0  0  0  0  0  0  0  0  0
   -0.6461   -0.0544  -20.1665 H   0  0  0  0  0  0  0  0  0  0  0  0
    0.6155    1.7650  -19.0773 O   0  0  0  0  0  0  0  0  0  0  0  0
   -2.4655   -0.5644  -14.3731 C   0  0  0  0  0  0  0  0  0  0  0  0
   -3.0171   -1.5804  -15.0725 O   0  0  0  0  0  0  0  0  0  0  0  0
   -3.6011   -2.2232  -14.6451 H   0  0  0  0  0  0  0  0  0  0  0  0
   -2.7203   -0.4462  -13.1832 O   0  0  0  0  0  0  0  0  0  0  0  0
    0.2584    2.4099  -11.8742 N   0  0  0  0  0  0  0  0  0  0  0  0
    0.0571    2.5650  -10.6533 N   0  0  0  0  0  0  0  0  0  0  0  0
   -0.5680    1.5567   -9.8739 C   0  0  0  0  0  0  0  0  0  0  0  0
   -0.9664    1.8562   -8.5672 C   0  0  0  0  0  0  0  0  0  0  0  0
   -1.5856    0.8838   -7.7795 C   0  0  0  0  0  0  0  0  0  0  0  0
   -1.8066   -0.3983   -8.2888 C   0  0  0  0  0  0  0  0  0  0  0  0
   -1.4137   -0.7201   -9.6001 C   0  0  0  0  0  0  0  0  0  0  0  0
   -0.7957    0.2660  -10.3906 C   0  0  0  0  0  0  0  0  0  0  0  0
    4.1057    7.4558   -8.4375 C   0  0  0  0  0  0  0  0  0  0  0  0
    4.9219    8.3224   -7.7985 O   0  0  0  0  0  0  0  0  0  0  0  0
    4.9576    8.3565   -6.8319 H   0  0  0  0  0  0  0  0  0  0  0  0
    3.3970    6.7036   -7.7837 O   0  0  0  0  0  0  0  0  0  0  0  0
    5.7681    9.1500  -12.8336 C   0  0  0  0  0  0  0  0  0  0  0  0
    6.5778   10.0162  -12.1851 O   0  0  0  0  0  0  0  0  0  0  0  0
    7.1628   10.6156  -12.6700 H   0  0  0  0  0  0  0  0  0  0  0  0
    5.7710    9.1231  -14.0560 O   0  0  0  0  0  0  0  0  0  0  0  0
    4.0901    7.3018  -13.8021 H   0  0  0  0  0  0  0  0  0  0  0  0
    5.5379    8.9745  -10.1505 H   0  0  0  0  0  0  0  0  0  0  0  0
    2.6429    5.8539   -9.9845 H   0  0  0  0  0  0  0  0  0  0  0  0
    1.7009    4.3481  -10.9558 H   0  0  0  0  0  0  0  0  0  0  0  0
    1.4625    4.4751  -15.8675 H   0  0  0  0  0  0  0  0  0  0  0  0
    2.7238    6.1020  -14.7573 H   0  0  0  0  0  0  0  0  0  0  0  0
   -1.1559    1.4510  -13.2736 H   0  0  0  0  0  0  0  0  0  0  0  0
   -1.7713   -0.5146  -16.9776 H   0  0  0  0  0  0  0  0  0  0  0  0
    0.9547    2.7567  -16.8249 H   0  0  0  0  0  0  0  0  0  0  0  0
   -0.8012    2.8474   -8.1628 H   0  0  0  0  0  0  0  0  0  0  0  0
   -1.8954    1.1242   -6.7707 H   0  0  0  0  0  0  0  0  0  0  0  0
   -2.2860   -1.1375   -7.6604 H   0  0  0  0  0  0  0  0  0  0  0  0
   -1.6367   -2.0286  -10.1213 N   0  0  0  0  0  0  0  0  0  0  0  0
   -0.4851    0.0279  -11.3988 H   0  0  0  0  0  0  0  0  0  0  0  0
   -2.1789   -2.9822   -9.3509 O   0  0  0  0  0  0  0  0  0  0  0  0
   -1.3008   -2.3238  -11.3846 O   0  0  0  0  0  0  0  0  0  0  0  0
  1  2  2  0  0  0  0
  1  6  1  0  0  0  0
  1 43  1  0  0  0  0
  2  3  1  0  0  0  0
  2 39  1  0  0  0  0
  3  4  2  0  0  0  0
  3 44  1  0  0  0  0
  4  5  1  0  0  0  0
  4 35  1  0  0  0  0
  5  6  2  0  0  0  0
  5 45  1  0  0  0  0
  6  7  1  0  0  0  0
  7  8  2  0  0  0  0
  7 12  1  0  0  0  0
  8  9  1  0  0  0  0
  8 46  1  0  0  0  0
  9 10  2  0  0  0  0
  9 27  1  0  0  0  0
 10 11  1  0  0  0  0
 10 13  1  0  0  0  0
 11 12  2  0  0  0  0
 11 47  1  0  0  0  0
 12 48  1  0  0  0  0
 13 14  2  0  0  0  0
 13 18  1  0  0  0  0
 14 15  1  0  0  0  0
 14 49  1  0  0  0  0
 15 16  2  0  0  0  0
 15 23  1  0  0  0  0
 16 17  1  0  0  0  0
 16 50  1  0  0  0  0
 17 18  2  0  0  0  0
 17 19  1  0  0  0  0
 18 51  1  0  0  0  0
 19 20  1  0  0  0  0
 19 22  2  0  0  0  0
 20 21  1  0  0  0  0
 23 24  1  0  0  0  0
 23 26  2  0  0  0  0
 24 25  1  0  0  0  0
 27 28  2  0  0  0  0
 28 29  1  0  0  0  0
 29 30  2  0  0  0  0
 29 34  1  0  0  0  0
 30 31  1  0  0  0  0
 30 52  1  0  0  0  0
 31 32  2  0  0  0  0
 31 53  1  0  0  0  0
 32 33  1  0  0  0  0
 32 54  1  0  0  0  0
 33 34  2  0  0  0  0
 33 55  1  0  0  0  0
 34 56  1  0  0  0  0
 35 36  1  0  0  0  0
 35 38  2  0  0  0  0
 36 37  1  0  0  0  0
 39 40  1  0  0  0  0
 39 42  2  0  0  0  0
 40 41  1  0  0  0  0
 55 57  1  0  0  0  0
 55 58  1  0  0  0  0
M  END
