
 OpenBabel06271501543D

 59 62  0  0  0  0  0  0  0  0999 V2000
    4.0606    7.3219  -12.7286 C   0  0  0  0  0  0  0  0  0  0  0  0
    4.9009    8.2270  -12.0530 C   0  0  0  0  0  0  0  0  0  0  0  0
    4.9080    8.2516  -10.6536 C   0  0  0  0  0  0  0  0  0  0  0  0
    4.0872    7.3883   -9.9222 C   0  0  0  0  0  0  0  0  0  0  0  0
    3.2499    6.4884  -10.6024 C   0  0  0  0  0  0  0  0  0  0  0  0
    3.2182    6.4279  -12.0214 C   0  0  0  0  0  0  0  0  0  0  0  0
    2.3438    5.4122  -12.7560 C   0  0  0  0  0  0  0  0  0  0  0  0
    1.6363    4.4213  -12.0530 C   0  0  0  0  0  0  0  0  0  0  0  0
    0.8836    3.4277  -12.7065 C   0  0  0  0  0  0  0  0  0  0  0  0
    0.7944    3.3931  -14.1316 C   0  0  0  0  0  0  0  0  0  0  0  0
    1.4855    4.4177  -14.8266 C   0  0  0  0  0  0  0  0  0  0  0  0
    2.2378    5.3927  -14.1611 C   0  0  0  0  0  0  0  0  0  0  0  0
    0.0273    2.2995  -14.9166 C   0  0  0  0  0  0  0  0  0  0  0  0
   -0.8764    1.3829  -14.3023 C   0  0  0  0  0  0  0  0  0  0  0  0
   -1.4992    0.3512  -15.0233 C   0  0  0  0  0  0  0  0  0  0  0  0
   -1.2685    0.2350  -16.3929 C   0  0  0  0  0  0  0  0  0  0  0  0
   -0.4226    1.1332  -17.0491 C   0  0  0  0  0  0  0  0  0  0  0  0
    0.2239    2.1469  -16.3154 C   0  0  0  0  0  0  0  0  0  0  0  0
   -0.2044    1.0003  -18.5126 C   0  0  0  0  0  0  0  0  0  0  0  0
   -0.8286    0.0215  -19.2043 O   0  0  0  0  0  0  0  0  0  0  0  0
   -0.7062   -0.0755  -20.1591 H   0  0  0  0  0  0  0  0  0  0  0  0
    0.5299    1.7804  -19.1017 O   0  0  0  0  0  0  0  0  0  0  0  0
   -2.3856   -0.6271  -14.3311 C   0  0  0  0  0  0  0  0  0  0  0  0
   -2.9198   -1.6626  -15.0150 O   0  0  0  0  0  0  0  0  0  0  0  0
   -3.4633   -2.3286  -14.5695 H   0  0  0  0  0  0  0  0  0  0  0  0
   -2.6051   -0.5231  -13.1325 O   0  0  0  0  0  0  0  0  0  0  0  0
    0.2672    2.4317  -11.9223 N   0  0  0  0  0  0  0  0  0  0  0  0
    0.0440    2.5718  -10.7076 N   0  0  0  0  0  0  0  0  0  0  0  0
   -0.5638    1.5330   -9.9652 C   0  0  0  0  0  0  0  0  0  0  0  0
   -1.0233    1.8012   -8.6760 C   0  0  0  0  0  0  0  0  0  0  0  0
   -1.6337    0.7897   -7.9223 C   0  0  0  0  0  0  0  0  0  0  0  0
   -1.7787   -0.4944   -8.4657 C   0  0  0  0  0  0  0  0  0  0  0  0
   -1.3207   -0.7662   -9.7546 C   0  0  0  0  0  0  0  0  0  0  0  0
   -0.7160    0.2406  -10.5060 C   0  0  0  0  0  0  0  0  0  0  0  0
    4.1134    7.4168   -8.4346 C   0  0  0  0  0  0  0  0  0  0  0  0
    4.9359    8.2695   -7.7853 O   0  0  0  0  0  0  0  0  0  0  0  0
    4.9713    8.2917   -6.8182 H   0  0  0  0  0  0  0  0  0  0  0  0
    3.3992    6.6620   -7.7897 O   0  0  0  0  0  0  0  0  0  0  0  0
    5.7900    9.1453  -12.8119 C   0  0  0  0  0  0  0  0  0  0  0  0
    6.6057    9.9978  -12.1528 O   0  0  0  0  0  0  0  0  0  0  0  0
    7.1961   10.5979  -12.6300 H   0  0  0  0  0  0  0  0  0  0  0  0
    5.7946    9.1311  -14.0344 O   0  0  0  0  0  0  0  0  0  0  0  0
    4.0950    7.3208  -13.8024 H   0  0  0  0  0  0  0  0  0  0  0  0
    5.5582    8.9425  -10.1313 H   0  0  0  0  0  0  0  0  0  0  0  0
    2.6391    5.8464   -9.9983 H   0  0  0  0  0  0  0  0  0  0  0  0
    1.6832    4.3664  -10.9843 H   0  0  0  0  0  0  0  0  0  0  0  0
    1.4667    4.4911  -15.8977 H   0  0  0  0  0  0  0  0  0  0  0  0
    2.7359    6.1188  -14.7779 H   0  0  0  0  0  0  0  0  0  0  0  0
   -1.1299    1.4283  -13.2737 H   0  0  0  0  0  0  0  0  0  0  0  0
   -1.7521   -0.5571  -16.9511 H   0  0  0  0  0  0  0  0  0  0  0  0
    0.8903    2.7893  -16.8578 H   0  0  0  0  0  0  0  0  0  0  0  0
   -0.9096    2.7984   -8.2660 H   0  0  0  0  0  0  0  0  0  0  0  0
   -2.1324    1.0677   -6.5433 C   0  0  0  0  0  0  0  0  0  0  0  0
   -2.2470   -1.2810   -7.8884 H   0  0  0  0  0  0  0  0  0  0  0  0
   -1.4336   -1.7581  -10.1719 H   0  0  0  0  0  0  0  0  0  0  0  0
   -0.3629    0.0107  -11.5023 H   0  0  0  0  0  0  0  0  0  0  0  0
   -1.9554    2.1247   -6.2511 H   0  0  0  0  0  0  0  0  0  0  0  0
   -1.6019    0.4046   -5.8293 H   0  0  0  0  0  0  0  0  0  0  0  0
   -3.2227    0.8642   -6.5058 H   0  0  0  0  0  0  0  0  0  0  0  0
  1  2  2  0  0  0  0
  1  6  1  0  0  0  0
  1 43  1  0  0  0  0
  2  3  1  0  0  0  0
  2 39  1  0  0  0  0
  3  4  2  0  0  0  0
  3 44  1  0  0  0  0
  4  5  1  0  0  0  0
  4 35  1  0  0  0  0
  5  6  2  0  0  0  0
  5 45  1  0  0  0  0
  6  7  1  0  0  0  0
  7  8  2  0  0  0  0
  7 12  1  0  0  0  0
  8  9  1  0  0  0  0
  8 46  1  0  0  0  0
  9 10  2  0  0  0  0
  9 27  1  0  0  0  0
 10 11  1  0  0  0  0
 10 13  1  0  0  0  0
 11 12  2  0  0  0  0
 11 47  1  0  0  0  0
 12 48  1  0  0  0  0
 13 14  2  0  0  0  0
 13 18  1  0  0  0  0
 14 15  1  0  0  0  0
 14 49  1  0  0  0  0
 15 16  2  0  0  0  0
 15 23  1  0  0  0  0
 16 17  1  0  0  0  0
 16 50  1  0  0  0  0
 17 18  2  0  0  0  0
 17 19  1  0  0  0  0
 18 51  1  0  0  0  0
 19 20  1  0  0  0  0
 19 22  2  0  0  0  0
 20 21  1  0  0  0  0
 23 24  1  0  0  0  0
 23 26  2  0  0  0  0
 24 25  1  0  0  0  0
 27 28  2  0  0  0  0
 28 29  1  0  0  0  0
 29 30  2  0  0  0  0
 29 34  1  0  0  0  0
 30 31  1  0  0  0  0
 30 52  1  0  0  0  0
 31 32  2  0  0  0  0
 31 53  1  0  0  0  0
 32 33  1  0  0  0  0
 32 54  1  0  0  0  0
 33 34  2  0  0  0  0
 33 55  1  0  0  0  0
 34 56  1  0  0  0  0
 35 36  1  0  0  0  0
 35 38  2  0  0  0  0
 36 37  1  0  0  0  0
 39 40  1  0  0  0  0
 39 42  2  0  0  0  0
 40 41  1  0  0  0  0
 53 57  1  0  0  0  0
 53 58  1  0  0  0  0
 53 59  1  0  0  0  0
M  END
