
 OpenBabel05291501433D

 77 82  0  0  0  0  0  0  0  0999 V2000
    3.9453    7.2014  -12.7992 C   0  0  0  0  0  0  0  0  0  0  0  0
    4.7387    8.1432  -12.1390 C   0  0  0  0  0  0  0  0  0  0  0  0
    4.7586    8.2360  -10.7291 C   0  0  0  0  0  0  0  0  0  0  0  0
    3.9351    7.3324  -10.0185 C   0  0  0  0  0  0  0  0  0  0  0  0
    3.1417    6.3895  -10.6794 C   0  0  0  0  0  0  0  0  0  0  0  0
    3.1249    6.2962  -12.0893 C   0  0  0  0  0  0  0  0  0  0  0  0
    2.2790    5.2530  -12.8153 C   0  0  0  0  0  0  0  0  0  0  0  0
    1.5649    4.2600  -12.1145 C   0  0  0  0  0  0  0  0  0  0  0  0
    0.8131    3.2579  -12.7757 C   0  0  0  0  0  0  0  0  0  0  0  0
    0.7587    3.2266  -14.2047 C   0  0  0  0  0  0  0  0  0  0  0  0
    1.4585    4.2535  -14.8864 C   0  0  0  0  0  0  0  0  0  0  0  0
    2.1925    5.2287  -14.2172 C   0  0  0  0  0  0  0  0  0  0  0  0
    0.0045    2.1643  -15.0270 C   0  0  0  0  0  0  0  0  0  0  0  0
   -0.9800    1.2968  -14.4874 C   0  0  0  0  0  0  0  0  0  0  0  0
   -1.6317    0.3384  -15.2839 C   0  0  0  0  0  0  0  0  0  0  0  0
   -1.3414    0.2031  -16.6606 C   0  0  0  0  0  0  0  0  0  0  0  0
   -0.3641    1.0666  -17.1931 C   0  0  0  0  0  0  0  0  0  0  0  0
    0.2873    2.0105  -16.4045 C   0  0  0  0  0  0  0  0  0  0  0  0
    0.1597    2.2729  -11.9901 N   0  0  0  0  0  0  0  0  0  0  0  0
   -0.0307    2.4358  -10.7681 N   0  0  0  0  0  0  0  0  0  0  0  0
   -0.6391    1.4392   -9.9651 C   0  0  0  0  0  0  0  0  0  0  0  0
   -1.0242    1.7620   -8.6581 C   0  0  0  0  0  0  0  0  0  0  0  0
   -1.6246    0.7997   -7.8419 C   0  0  0  0  0  0  0  0  0  0  0  0
   -1.8388   -0.4993   -8.3267 C   0  0  0  0  0  0  0  0  0  0  0  0
   -1.4518   -0.8260   -9.6311 C   0  0  0  0  0  0  0  0  0  0  0  0
   -0.8568    0.1370  -10.4508 C   0  0  0  0  0  0  0  0  0  0  0  0
    4.0050    7.1980  -13.8720 H   0  0  0  0  0  0  0  0  0  0  0  0
    5.6296    9.2635  -10.0081 C   0  0  0  0  0  0  0  0  0  0  0  0
    2.5480    5.7460  -10.0561 H   0  0  0  0  0  0  0  0  0  0  0  0
    1.5996    4.2240  -11.0429 H   0  0  0  0  0  0  0  0  0  0  0  0
    1.4494    4.3378  -15.9568 H   0  0  0  0  0  0  0  0  0  0  0  0
    2.6873    5.9575  -14.8324 H   0  0  0  0  0  0  0  0  0  0  0  0
   -1.2886    1.3419  -13.4635 H   0  0  0  0  0  0  0  0  0  0  0  0
   -2.0428   -0.8254  -17.5430 C   0  0  0  0  0  0  0  0  0  0  0  0
    1.0320    2.5986  -16.9067 H   0  0  0  0  0  0  0  0  0  0  0  0
   -0.8622    2.7627   -8.2758 H   0  0  0  0  0  0  0  0  0  0  0  0
   -1.9219    1.0630   -6.8345 H   0  0  0  0  0  0  0  0  0  0  0  0
   -2.4136   -1.4374   -7.5475 O   0  0  0  0  0  0  0  0  0  0  0  0
   -1.6114   -1.8273  -10.0100 H   0  0  0  0  0  0  0  0  0  0  0  0
   -0.5608   -0.1339  -11.4560 H   0  0  0  0  0  0  0  0  0  0  0  0
    5.6498    9.3496   -8.5923 C   0  0  0  0  0  0  0  0  0  0  0  0
    6.4467   10.2967   -7.9249 C   0  0  0  0  0  0  0  0  0  0  0  0
    7.2408   11.1762   -8.6678 C   0  0  0  0  0  0  0  0  0  0  0  0
    7.2496   11.1210  -10.0652 C   0  0  0  0  0  0  0  0  0  0  0  0
    6.4502   10.1715  -10.7268 C   0  0  0  0  0  0  0  0  0  0  0  0
    6.4489   10.3705   -6.4397 C   0  0  0  0  0  0  0  0  0  0  0  0
    8.0998   12.0653  -10.8384 C   0  0  0  0  0  0  0  0  0  0  0  0
   -2.8705   -1.8372  -16.9938 C   0  0  0  0  0  0  0  0  0  0  0  0
   -3.5087   -2.7864  -17.8189 C   0  0  0  0  0  0  0  0  0  0  0  0
   -3.3269   -2.7303  -19.2064 C   0  0  0  0  0  0  0  0  0  0  0  0
   -2.5207   -1.7435  -19.7800 C   0  0  0  0  0  0  0  0  0  0  0  0
   -1.8870   -0.8027  -18.9530 C   0  0  0  0  0  0  0  0  0  0  0  0
   -4.3697   -3.8485  -17.2346 C   0  0  0  0  0  0  0  0  0  0  0  0
   -2.3384   -1.6927  -21.2559 C   0  0  0  0  0  0  0  0  0  0  0  0
    5.7603    9.6035   -5.7818 O   0  0  0  0  0  0  0  0  0  0  0  0
    8.1167   12.0231  -12.0604 O   0  0  0  0  0  0  0  0  0  0  0  0
   -4.5376   -3.9129  -16.0254 O   0  0  0  0  0  0  0  0  0  0  0  0
   -1.6330   -0.8311  -21.7615 O   0  0  0  0  0  0  0  0  0  0  0  0
    7.2113   11.2893   -5.8067 O   0  0  0  0  0  0  0  0  0  0  0  0
    8.8584   12.9792  -10.1938 O   0  0  0  0  0  0  0  0  0  0  0  0
   -2.9501   -2.5998  -22.0485 O   0  0  0  0  0  0  0  0  0  0  0  0
   -4.9727   -4.7514  -18.0404 O   0  0  0  0  0  0  0  0  0  0  0  0
    7.8549   11.9070   -8.1560 H   0  0  0  0  0  0  0  0  0  0  0  0
    6.4858   10.1638  -11.7995 H   0  0  0  0  0  0  0  0  0  0  0  0
    5.0556    8.6943   -7.9846 H   0  0  0  0  0  0  0  0  0  0  0  0
    3.8827    7.3272   -8.9458 H   0  0  0  0  0  0  0  0  0  0  0  0
    5.3316    8.7842  -12.7643 H   0  0  0  0  0  0  0  0  0  0  0  0
   -1.2871   -0.0556  -19.4363 H   0  0  0  0  0  0  0  0  0  0  0  0
   -0.0640    1.0266  -18.2233 H   0  0  0  0  0  0  0  0  0  0  0  0
   -2.3730   -0.2766  -14.8014 H   0  0  0  0  0  0  0  0  0  0  0  0
   -3.0214   -1.9122  -15.9308 H   0  0  0  0  0  0  0  0  0  0  0  0
   -3.8154   -3.4578  -19.8433 H   0  0  0  0  0  0  0  0  0  0  0  0
   -5.5368   -5.4507  -17.6807 H   0  0  0  0  0  0  0  0  0  0  0  0
   -2.8396   -2.5789  -23.0099 H   0  0  0  0  0  0  0  0  0  0  0  0
    7.2214   11.3530   -4.8411 H   0  0  0  0  0  0  0  0  0  0  0  0
    9.4148   13.6032  -10.6814 H   0  0  0  0  0  0  0  0  0  0  0  0
   -2.6929   -1.2438   -6.6413 H   0  0  0  0  0  0  0  0  0  0  0  0
  1  2  2  0  0  0  0
  1  6  1  0  0  0  0
  1 27  1  0  0  0  0
  2  3  1  0  0  0  0
  2 67  1  0  0  0  0
  3  4  2  0  0  0  0
  3 28  1  0  0  0  0
  4  5  1  0  0  0  0
  4 66  1  0  0  0  0
  5  6  2  0  0  0  0
  5 29  1  0  0  0  0
  6  7  1  0  0  0  0
  7  8  2  0  0  0  0
  7 12  1  0  0  0  0
  8  9  1  0  0  0  0
  8 30  1  0  0  0  0
  9 10  2  0  0  0  0
  9 19  1  0  0  0  0
 10 11  1  0  0  0  0
 10 13  1  0  0  0  0
 11 12  2  0  0  0  0
 11 31  1  0  0  0  0
 12 32  1  0  0  0  0
 13 14  2  0  0  0  0
 13 18  1  0  0  0  0
 14 15  1  0  0  0  0
 14 33  1  0  0  0  0
 15 16  2  0  0  0  0
 15 70  1  0  0  0  0
 16 17  1  0  0  0  0
 16 34  1  0  0  0  0
 17 18  2  0  0  0  0
 17 69  1  0  0  0  0
 18 35  1  0  0  0  0
 19 20  2  0  0  0  0
 20 21  1  0  0  0  0
 21 22  2  0  0  0  0
 21 26  1  0  0  0  0
 22 23  1  0  0  0  0
 22 36  1  0  0  0  0
 23 24  2  0  0  0  0
 23 37  1  0  0  0  0
 24 25  1  0  0  0  0
 24 38  1  0  0  0  0
 25 26  2  0  0  0  0
 25 39  1  0  0  0  0
 26 40  1  0  0  0  0
 28 41  2  0  0  0  0
 34 48  2  0  0  0  0
 38 77  1  0  0  0  0
 41 42  1  0  0  0  0
 41 65  1  0  0  0  0
 42 43  2  0  0  0  0
 42 46  1  0  0  0  0
 43 44  1  0  0  0  0
 43 63  1  0  0  0  0
 44 45  2  0  0  0  0
 44 47  1  0  0  0  0
 45 28  1  0  0  0  0
 45 64  1  0  0  0  0
 46 55  2  0  0  0  0
 46 59  1  0  0  0  0
 47 56  2  0  0  0  0
 47 60  1  0  0  0  0
 48 49  1  0  0  0  0
 48 71  1  0  0  0  0
 49 50  2  0  0  0  0
 49 53  1  0  0  0  0
 50 51  1  0  0  0  0
 50 72  1  0  0  0  0
 51 52  2  0  0  0  0
 51 54  1  0  0  0  0
 52 34  1  0  0  0  0
 52 68  1  0  0  0  0
 53 57  2  0  0  0  0
 53 62  1  0  0  0  0
 54 58  2  0  0  0  0
 54 61  1  0  0  0  0
 59 75  1  0  0  0  0
 60 76  1  0  0  0  0
 61 74  1  0  0  0  0
 62 73  1  0  0  0  0
M  END
