
 OpenBabel02181613243D

 56 59  0  0  0  0  0  0  0  0999 V2000
    8.9696   12.9176  -17.5571 C   0  0  0  0  0  0  0  0  0  0  0  0
    9.8067   13.8286  -16.8847 C   0  0  0  0  0  0  0  0  0  0  0  0
    9.8125   13.8587  -15.4853 C   0  0  0  0  0  0  0  0  0  0  0  0
    8.9938   12.9958  -14.7512 C   0  0  0  0  0  0  0  0  0  0  0  0
    8.1602   12.0907  -15.4280 C   0  0  0  0  0  0  0  0  0  0  0  0
    8.1295   12.0234  -16.8459 C   0  0  0  0  0  0  0  0  0  0  0  0
    7.2567   11.0017  -17.5738 C   0  0  0  0  0  0  0  0  0  0  0  0
    6.5514   10.0103  -16.8655 C   0  0  0  0  0  0  0  0  0  0  0  0
    5.7944    9.0132  -17.5113 C   0  0  0  0  0  0  0  0  0  0  0  0
    5.7079    8.9779  -18.9411 C   0  0  0  0  0  0  0  0  0  0  0  0
    6.3968   10.0037  -19.6381 C   0  0  0  0  0  0  0  0  0  0  0  0
    7.1474   10.9805  -18.9773 C   0  0  0  0  0  0  0  0  0  0  0  0
    4.9441    7.8908  -19.7337 C   0  0  0  0  0  0  0  0  0  0  0  0
    4.0318    6.9827  -19.1259 C   0  0  0  0  0  0  0  0  0  0  0  0
    3.4009    5.9606  -19.8543 C   0  0  0  0  0  0  0  0  0  0  0  0
    3.6385    5.8437  -21.2237 C   0  0  0  0  0  0  0  0  0  0  0  0
    4.4995    6.7316  -21.8732 C   0  0  0  0  0  0  0  0  0  0  0  0
    5.1502    7.7378  -21.1332 C   0  0  0  0  0  0  0  0  0  0  0  0
    4.7283    6.5962  -23.3362 C   0  0  0  0  0  0  0  0  0  0  0  0
    4.0997    5.6236  -24.0333 O   0  0  0  0  0  0  0  0  0  0  0  0
    4.2298    5.5243  -24.9870 H   0  0  0  0  0  0  0  0  0  0  0  0
    5.4766    7.3675  -23.9193 O   0  0  0  0  0  0  0  0  0  0  0  0
    2.4964    4.9945  -19.1712 C   0  0  0  0  0  0  0  0  0  0  0  0
    1.9415    3.9765  -19.8647 O   0  0  0  0  0  0  0  0  0  0  0  0
    1.3802    3.3206  -19.4270 H   0  0  0  0  0  0  0  0  0  0  0  0
    2.2760    5.0948  -17.9725 O   0  0  0  0  0  0  0  0  0  0  0  0
    5.1701    8.0230  -16.7137 N   0  0  0  0  0  0  0  0  0  0  0  0
    4.9607    8.1737  -15.4940 N   0  0  0  0  0  0  0  0  0  0  0  0
    4.3459    7.1502  -14.7271 C   0  0  0  0  0  0  0  0  0  0  0  0
    3.9016    7.4365  -13.4299 C   0  0  0  0  0  0  0  0  0  0  0  0
    3.2846    6.4428  -12.6623 C   0  0  0  0  0  0  0  0  0  0  0  0
    3.1137    5.1575  -13.1854 C   0  0  0  0  0  0  0  0  0  0  0  0
    3.5574    4.8634  -14.4769 C   0  0  0  0  0  0  0  0  0  0  0  0
    4.1698    5.8532  -15.2487 C   0  0  0  0  0  0  0  0  0  0  0  0
    9.0177   13.0299  -13.2640 C   0  0  0  0  0  0  0  0  0  0  0  0
    9.8372   13.8870  -12.6167 O   0  0  0  0  0  0  0  0  0  0  0  0
    9.8712   13.9123  -11.6497 H   0  0  0  0  0  0  0  0  0  0  0  0
    8.3046   12.2756  -12.6173 O   0  0  0  0  0  0  0  0  0  0  0  0
   10.6936   14.7472  -17.6463 C   0  0  0  0  0  0  0  0  0  0  0  0
   11.5063   15.6046  -16.9897 O   0  0  0  0  0  0  0  0  0  0  0  0
   12.0953   16.2048  -17.4685 H   0  0  0  0  0  0  0  0  0  0  0  0
   10.6988   14.7290  -18.8688 O   0  0  0  0  0  0  0  0  0  0  0  0
    9.0049   12.9125  -18.6311 H   0  0  0  0  0  0  0  0  0  0  0  0
   10.4598   14.5539  -14.9651 H   0  0  0  0  0  0  0  0  0  0  0  0
    7.5505   11.4499  -14.8219 H   0  0  0  0  0  0  0  0  0  0  0  0
    6.6016    9.9601  -15.7973 H   0  0  0  0  0  0  0  0  0  0  0  0
    6.3753   10.0788  -20.7094 H   0  0  0  0  0  0  0  0  0  0  0  0
    7.6411   11.7078  -19.5970 H   0  0  0  0  0  0  0  0  0  0  0  0
    3.7781    7.0323  -18.0965 H   0  0  0  0  0  0  0  0  0  0  0  0
    3.1494    5.0584  -21.7868 H   0  0  0  0  0  0  0  0  0  0  0  0
    5.8271    8.3732  -21.6715 H   0  0  0  0  0  0  0  0  0  0  0  0
    4.0271    8.4308  -13.0192 H   0  0  0  0  0  0  0  0  0  0  0  0
    2.9380    6.6692  -11.6625 H   0  0  0  0  0  0  0  0  0  0  0  0
    2.6379    4.3892  -12.5903 H   0  0  0  0  0  0  0  0  0  0  0  0
    3.4272    3.8682  -14.8817 H   0  0  0  0  0  0  0  0  0  0  0  0
    4.5097    5.6071  -16.2459 H   0  0  0  0  0  0  0  0  0  0  0  0
  1  2  2  0  0  0  0
  1  6  1  0  0  0  0
  1 43  1  0  0  0  0
  2  3  1  0  0  0  0
  2 39  1  0  0  0  0
  3  4  2  0  0  0  0
  3 44  1  0  0  0  0
  4  5  1  0  0  0  0
  4 35  1  0  0  0  0
  5  6  2  0  0  0  0
  5 45  1  0  0  0  0
  6  7  1  0  0  0  0
  7  8  2  0  0  0  0
  7 12  1  0  0  0  0
  8  9  1  0  0  0  0
  8 46  1  0  0  0  0
  9 10  2  0  0  0  0
  9 27  1  0  0  0  0
 10 11  1  0  0  0  0
 10 13  1  0  0  0  0
 11 12  2  0  0  0  0
 11 47  1  0  0  0  0
 12 48  1  0  0  0  0
 13 14  2  0  0  0  0
 13 18  1  0  0  0  0
 14 15  1  0  0  0  0
 14 49  1  0  0  0  0
 15 16  2  0  0  0  0
 15 23  1  0  0  0  0
 16 17  1  0  0  0  0
 16 50  1  0  0  0  0
 17 18  2  0  0  0  0
 17 19  1  0  0  0  0
 18 51  1  0  0  0  0
 19 20  1  0  0  0  0
 19 22  2  0  0  0  0
 20 21  1  0  0  0  0
 23 24  1  0  0  0  0
 23 26  2  0  0  0  0
 24 25  1  0  0  0  0
 27 28  2  0  0  0  0
 28 29  1  0  0  0  0
 29 30  2  0  0  0  0
 29 34  1  0  0  0  0
 30 31  1  0  0  0  0
 30 52  1  0  0  0  0
 31 32  2  0  0  0  0
 31 53  1  0  0  0  0
 32 33  1  0  0  0  0
 32 54  1  0  0  0  0
 33 34  2  0  0  0  0
 33 55  1  0  0  0  0
 34 56  1  0  0  0  0
 35 36  1  0  0  0  0
 35 38  2  0  0  0  0
 36 37  1  0  0  0  0
 39 40  1  0  0  0  0
 39 42  2  0  0  0  0
 40 41  1  0  0  0  0
M  END
