
 OpenBabel05291501333D

 77 82  0  0  0  0  0  0  0  0999 V2000
    2.5888    4.4972   -8.2377 C   0  0  0  0  0  0  0  0  0  0  0  0
    3.3567    5.4585   -7.5760 C   0  0  0  0  0  0  0  0  0  0  0  0
    3.3159    5.5944   -6.1698 C   0  0  0  0  0  0  0  0  0  0  0  0
    2.4655    4.7148   -5.4626 C   0  0  0  0  0  0  0  0  0  0  0  0
    1.7014    3.7511   -6.1246 C   0  0  0  0  0  0  0  0  0  0  0  0
    1.7435    3.6171   -7.5295 C   0  0  0  0  0  0  0  0  0  0  0  0
    0.9099    2.5715   -8.2499 C   0  0  0  0  0  0  0  0  0  0  0  0
    0.2775    1.5278   -7.5439 C   0  0  0  0  0  0  0  0  0  0  0  0
   -0.5170    0.5573   -8.1919 C   0  0  0  0  0  0  0  0  0  0  0  0
   -0.6595    0.5957   -9.6078 C   0  0  0  0  0  0  0  0  0  0  0  0
   -0.0127    1.6360  -10.3066 C   0  0  0  0  0  0  0  0  0  0  0  0
    0.7444    2.6019   -9.6474 C   0  0  0  0  0  0  0  0  0  0  0  0
   -1.4672   -0.4217  -10.3892 C   0  0  0  0  0  0  0  0  0  0  0  0
   -2.5695   -1.0986   -9.8315 C   0  0  0  0  0  0  0  0  0  0  0  0
   -3.2995   -2.0317  -10.5752 C   0  0  0  0  0  0  0  0  0  0  0  0
   -2.9618   -2.3335  -11.9162 C   0  0  0  0  0  0  0  0  0  0  0  0
   -1.8590   -1.6440  -12.4713 C   0  0  0  0  0  0  0  0  0  0  0  0
   -1.1353   -0.7110  -11.7270 C   0  0  0  0  0  0  0  0  0  0  0  0
   -1.0815   -0.5152   -7.4322 N   0  0  0  0  0  0  0  0  0  0  0  0
   -1.5096   -0.4357   -6.2517 N   0  0  0  0  0  0  0  0  0  0  0  0
   -1.8647    0.7718   -5.5721 C   0  0  0  0  0  0  0  0  0  0  0  0
   -1.6575    0.8606   -4.1849 C   0  0  0  0  0  0  0  0  0  0  0  0
   -2.0045    2.0346   -3.4973 C   0  0  0  0  0  0  0  0  0  0  0  0
   -2.5659    3.1126   -4.1850 C   0  0  0  0  0  0  0  0  0  0  0  0
   -2.7920    3.0238   -5.5593 C   0  0  0  0  0  0  0  0  0  0  0  0
   -2.4501    1.8601   -6.2528 C   0  0  0  0  0  0  0  0  0  0  0  0
    2.6841    4.4537   -9.3090 H   0  0  0  0  0  0  0  0  0  0  0  0
    4.1513    6.6435   -5.4480 C   0  0  0  0  0  0  0  0  0  0  0  0
    1.0718    3.1296   -5.5111 H   0  0  0  0  0  0  0  0  0  0  0  0
    0.4153    1.4319   -6.4843 H   0  0  0  0  0  0  0  0  0  0  0  0
   -0.1070    1.7300  -11.3782 H   0  0  0  0  0  0  0  0  0  0  0  0
    1.1845    3.3726  -10.2560 H   0  0  0  0  0  0  0  0  0  0  0  0
   -2.9058   -0.8986   -8.8287 H   0  0  0  0  0  0  0  0  0  0  0  0
   -3.7511   -3.3544  -12.7288 C   0  0  0  0  0  0  0  0  0  0  0  0
   -0.2930   -0.2366  -12.2083 H   0  0  0  0  0  0  0  0  0  0  0  0
   -1.1146   -0.1814   -3.5209 O   0  0  0  0  0  0  0  0  0  0  0  0
   -1.8385    2.1107   -2.4300 H   0  0  0  0  0  0  0  0  0  0  0  0
   -2.8317    4.0156   -3.6506 H   0  0  0  0  0  0  0  0  0  0  0  0
   -3.2359    3.8571   -6.0884 H   0  0  0  0  0  0  0  0  0  0  0  0
   -2.6464    1.8079   -7.3151 H   0  0  0  0  0  0  0  0  0  0  0  0
   -0.9540   -0.1498   -2.5669 H   0  0  0  0  0  0  0  0  0  0  0  0
    3.9631    6.9123   -4.0692 C   0  0  0  0  0  0  0  0  0  0  0  0
    4.7322    7.8803   -3.3996 C   0  0  0  0  0  0  0  0  0  0  0  0
    5.7066    8.5955   -4.1049 C   0  0  0  0  0  0  0  0  0  0  0  0
    5.9204    8.3560   -5.4670 C   0  0  0  0  0  0  0  0  0  0  0  0
    5.1465    7.3873   -6.1299 C   0  0  0  0  0  0  0  0  0  0  0  0
    4.5155    8.1486   -1.9532 C   0  0  0  0  0  0  0  0  0  0  0  0
    6.9615    9.1225   -6.2014 C   0  0  0  0  0  0  0  0  0  0  0  0
   -4.7630   -4.1481  -12.1322 C   0  0  0  0  0  0  0  0  0  0  0  0
   -5.4898   -5.0928  -12.8790 C   0  0  0  0  0  0  0  0  0  0  0  0
   -5.2127   -5.2568  -14.2408 C   0  0  0  0  0  0  0  0  0  0  0  0
   -4.2215   -4.4909  -14.8635 C   0  0  0  0  0  0  0  0  0  0  0  0
   -3.4990   -3.5487  -14.1108 C   0  0  0  0  0  0  0  0  0  0  0  0
   -3.9392   -4.6768  -16.3119 C   0  0  0  0  0  0  0  0  0  0  0  0
   -6.5453   -5.9170  -12.2329 C   0  0  0  0  0  0  0  0  0  0  0  0
   -6.7941   -5.7807  -11.0434 O   0  0  0  0  0  0  0  0  0  0  0  0
   -3.0744   -4.0109  -16.8632 O   0  0  0  0  0  0  0  0  0  0  0  0
    3.6658    7.5280   -1.3303 O   0  0  0  0  0  0  0  0  0  0  0  0
    7.1545    8.9184   -7.3916 O   0  0  0  0  0  0  0  0  0  0  0  0
   -7.2376   -6.8233  -12.9577 O   0  0  0  0  0  0  0  0  0  0  0  0
   -7.9277   -7.3677  -12.5528 H   0  0  0  0  0  0  0  0  0  0  0  0
   -4.6366   -5.5856  -17.0285 O   0  0  0  0  0  0  0  0  0  0  0  0
   -4.4638   -5.7196  -17.9713 H   0  0  0  0  0  0  0  0  0  0  0  0
    7.7018   10.0513   -5.5573 O   0  0  0  0  0  0  0  0  0  0  0  0
    8.3829   10.5589   -6.0209 H   0  0  0  0  0  0  0  0  0  0  0  0
    5.2579    9.0812   -1.3170 O   0  0  0  0  0  0  0  0  0  0  0  0
    5.1296    9.2675   -0.3760 H   0  0  0  0  0  0  0  0  0  0  0  0
   -5.7704   -5.9837  -14.8182 H   0  0  0  0  0  0  0  0  0  0  0  0
   -4.9983   -4.0574  -11.0880 H   0  0  0  0  0  0  0  0  0  0  0  0
   -2.7523   -2.9757  -14.6274 H   0  0  0  0  0  0  0  0  0  0  0  0
   -1.5230   -1.8134  -13.4775 H   0  0  0  0  0  0  0  0  0  0  0  0
   -4.1331   -2.4931  -10.0777 H   0  0  0  0  0  0  0  0  0  0  0  0
    2.3774    4.7425   -4.3915 H   0  0  0  0  0  0  0  0  0  0  0  0
    3.9682    6.0910   -8.1939 H   0  0  0  0  0  0  0  0  0  0  0  0
    3.2176    6.3910   -3.4974 H   0  0  0  0  0  0  0  0  0  0  0  0
    5.3464    7.2235   -7.1729 H   0  0  0  0  0  0  0  0  0  0  0  0
    6.3008    9.3414   -3.5917 H   0  0  0  0  0  0  0  0  0  0  0  0
  1  2  2  0  0  0  0
  1  6  1  0  0  0  0
  1 27  1  0  0  0  0
  2  3  1  0  0  0  0
  2 74  1  0  0  0  0
  3  4  2  0  0  0  0
  3 28  1  0  0  0  0
  4  5  1  0  0  0  0
  4 73  1  0  0  0  0
  5  6  2  0  0  0  0
  5 29  1  0  0  0  0
  6  7  1  0  0  0  0
  7  8  2  0  0  0  0
  7 12  1  0  0  0  0
  8  9  1  0  0  0  0
  8 30  1  0  0  0  0
  9 10  2  0  0  0  0
  9 19  1  0  0  0  0
 10 11  1  0  0  0  0
 10 13  1  0  0  0  0
 11 12  2  0  0  0  0
 11 31  1  0  0  0  0
 12 32  1  0  0  0  0
 13 14  2  0  0  0  0
 13 18  1  0  0  0  0
 14 15  1  0  0  0  0
 14 33  1  0  0  0  0
 15 16  2  0  0  0  0
 15 72  1  0  0  0  0
 16 17  1  0  0  0  0
 16 34  1  0  0  0  0
 17 18  2  0  0  0  0
 17 71  1  0  0  0  0
 18 35  1  0  0  0  0
 19 20  2  0  0  0  0
 20 21  1  0  0  0  0
 21 22  2  0  0  0  0
 21 26  1  0  0  0  0
 22 23  1  0  0  0  0
 22 36  1  0  0  0  0
 23 24  2  0  0  0  0
 23 37  1  0  0  0  0
 24 25  1  0  0  0  0
 24 38  1  0  0  0  0
 25 26  2  0  0  0  0
 25 39  1  0  0  0  0
 26 40  1  0  0  0  0
 28 42  2  0  0  0  0
 34 49  2  0  0  0  0
 36 41  1  0  0  0  0
 42 43  1  0  0  0  0
 42 75  1  0  0  0  0
 43 44  2  0  0  0  0
 43 47  1  0  0  0  0
 44 45  1  0  0  0  0
 44 77  1  0  0  0  0
 45 46  2  0  0  0  0
 45 48  1  0  0  0  0
 46 28  1  0  0  0  0
 46 76  1  0  0  0  0
 47 58  2  0  0  0  0
 47 66  1  0  0  0  0
 48 59  2  0  0  0  0
 48 64  1  0  0  0  0
 49 50  1  0  0  0  0
 49 69  1  0  0  0  0
 50 51  2  0  0  0  0
 50 55  1  0  0  0  0
 51 52  1  0  0  0  0
 51 68  1  0  0  0  0
 52 53  2  0  0  0  0
 52 54  1  0  0  0  0
 53 34  1  0  0  0  0
 53 70  1  0  0  0  0
 54 57  2  0  0  0  0
 54 62  1  0  0  0  0
 55 56  2  0  0  0  0
 55 60  1  0  0  0  0
 60 61  1  0  0  0  0
 62 63  1  0  0  0  0
 64 65  1  0  0  0  0
 66 67  1  0  0  0  0
M  END
