
 OpenBabel04161601263D

 59 62  0  0  0  0  0  0  0  0999 V2000
    0.8045    5.1807   -8.8926 C   0  0  0  0  0  0  0  0  0  0  0  0
    1.2229    6.4114   -8.3565 C   0  0  0  0  0  0  0  0  0  0  0  0
    1.0881    6.6466   -6.9824 C   0  0  0  0  0  0  0  0  0  0  0  0
    0.5425    5.6691   -6.1411 C   0  0  0  0  0  0  0  0  0  0  0  0
    0.1307    4.4404   -6.6846 C   0  0  0  0  0  0  0  0  0  0  0  0
    0.2533    4.1703   -8.0693 C   0  0  0  0  0  0  0  0  0  0  0  0
   -0.2007    2.8447   -8.6512 C   0  0  0  0  0  0  0  0  0  0  0  0
   -0.4358    1.7280   -7.8235 C   0  0  0  0  0  0  0  0  0  0  0  0
   -0.8843    0.4946   -8.3415 C   0  0  0  0  0  0  0  0  0  0  0  0
   -1.0745    0.3479   -9.7437 C   0  0  0  0  0  0  0  0  0  0  0  0
   -0.8176    1.4634  -10.5664 C   0  0  0  0  0  0  0  0  0  0  0  0
   -0.3987    2.6819  -10.0355 C   0  0  0  0  0  0  0  0  0  0  0  0
   -1.5443   -0.9425  -10.3802 C   0  0  0  0  0  0  0  0  0  0  0  0
   -2.3896   -1.8447   -9.6963 C   0  0  0  0  0  0  0  0  0  0  0  0
   -2.8253   -3.0358  -10.3024 C   0  0  0  0  0  0  0  0  0  0  0  0
   -2.4153   -3.3345  -11.6087 C   0  0  0  0  0  0  0  0  0  0  0  0
   -1.5839   -2.4549  -12.3148 C   0  0  0  0  0  0  0  0  0  0  0  0
   -1.1578   -1.2647  -11.7006 C   0  0  0  0  0  0  0  0  0  0  0  0
   -1.1571   -2.7835  -13.6998 C   0  0  0  0  0  0  0  0  0  0  0  0
   -1.5690   -3.9305  -14.2830 O   0  0  0  0  0  0  0  0  0  0  0  0
   -1.2999   -4.1594  -15.1840 H   0  0  0  0  0  0  0  0  0  0  0  0
   -0.4313   -2.0193  -14.3199 O   0  0  0  0  0  0  0  0  0  0  0  0
   -3.7197   -3.9705   -9.5706 C   0  0  0  0  0  0  0  0  0  0  0  0
   -4.1379   -5.1119  -10.1604 O   0  0  0  0  0  0  0  0  0  0  0  0
   -4.7200   -5.7310   -9.6974 H   0  0  0  0  0  0  0  0  0  0  0  0
   -4.0821   -3.7136   -8.4313 O   0  0  0  0  0  0  0  0  0  0  0  0
   -1.0408   -0.6267   -7.4668 N   0  0  0  0  0  0  0  0  0  0  0  0
   -1.4424   -0.5826   -6.2757 N   0  0  0  0  0  0  0  0  0  0  0  0
   -1.8261    0.5977   -5.5677 C   0  0  0  0  0  0  0  0  0  0  0  0
   -1.6058    0.6568   -4.1862 C   0  0  0  0  0  0  0  0  0  0  0  0
   -1.9709    1.7924   -3.4576 C   0  0  0  0  0  0  0  0  0  0  0  0
   -2.5748    2.8819   -4.1034 C   0  0  0  0  0  0  0  0  0  0  0  0
   -2.8175    2.8191   -5.4823 C   0  0  0  0  0  0  0  0  0  0  0  0
   -2.4522    1.6842   -6.2114 C   0  0  0  0  0  0  0  0  0  0  0  0
    0.3974    5.9360   -4.6857 C   0  0  0  0  0  0  0  0  0  0  0  0
    0.7946    7.1200   -4.1698 O   0  0  0  0  0  0  0  0  0  0  0  0
    0.7068    7.3096   -3.2249 H   0  0  0  0  0  0  0  0  0  0  0  0
   -0.0824    5.0877   -3.9469 O   0  0  0  0  0  0  0  0  0  0  0  0
    1.8060    7.4583   -9.2362 C   0  0  0  0  0  0  0  0  0  0  0  0
    2.2070    8.6381   -8.7138 O   0  0  0  0  0  0  0  0  0  0  0  0
    2.5886    9.3299   -9.2727 H   0  0  0  0  0  0  0  0  0  0  0  0
    1.9265    7.2594  -10.4368 O   0  0  0  0  0  0  0  0  0  0  0  0
    0.9321    5.0228   -9.9499 H   0  0  0  0  0  0  0  0  0  0  0  0
    1.4074    7.5943   -6.5667 H   0  0  0  0  0  0  0  0  0  0  0  0
   -0.3013    3.7163   -6.0148 H   0  0  0  0  0  0  0  0  0  0  0  0
   -0.2446    1.7877   -6.7683 H   0  0  0  0  0  0  0  0  0  0  0  0
   -0.9684    1.4124  -11.6350 H   0  0  0  0  0  0  0  0  0  0  0  0
   -0.2517    3.4924  -10.7293 H   0  0  0  0  0  0  0  0  0  0  0  0
   -2.7451   -1.6211   -8.7049 H   0  0  0  0  0  0  0  0  0  0  0  0
   -2.7480   -4.2517  -12.0787 H   0  0  0  0  0  0  0  0  0  0  0  0
   -0.5046   -0.6045  -12.2524 H   0  0  0  0  0  0  0  0  0  0  0  0
   -1.1395   -0.1772   -3.6768 H   0  0  0  0  0  0  0  0  0  0  0  0
   -1.7824    1.8220   -2.3917 H   0  0  0  0  0  0  0  0  0  0  0  0
   -3.2922    3.6496   -5.9905 H   0  0  0  0  0  0  0  0  0  0  0  0
   -2.6625    1.6545   -7.2718 H   0  0  0  0  0  0  0  0  0  0  0  0
   -2.9675    4.1072   -3.3328 C   0  0  0  0  0  0  0  0  0  0  0  0
   -2.7155    4.0113   -2.2551 H   0  0  0  0  0  0  0  0  0  0  0  0
   -4.0383    4.2792   -3.4167 H   0  0  0  0  0  0  0  0  0  0  0  0
   -2.4048    4.9910   -3.7313 H   0  0  0  0  0  0  0  0  0  0  0  0
  1  2  2  0  0  0  0
  1  6  1  0  0  0  0
  2  3  1  0  0  0  0
  3 44  1  0  0  0  0
  3  4  2  0  0  0  0
  4 35  1  0  0  0  0
  5  4  1  0  0  0  0
  5 45  1  0  0  0  0
  6  5  2  0  0  0  0
  7  6  1  0  0  0  0
  7  8  2  0  0  0  0
  8 46  1  0  0  0  0
  9  8  1  0  0  0  0
  9 27  1  0  0  0  0
 10  9  2  0  0  0  0
 11 12  2  0  0  0  0
 11 10  1  0  0  0  0
 12  7  1  0  0  0  0
 13 10  1  0  0  0  0
 13 14  2  0  0  0  0
 14 49  1  0  0  0  0
 15 14  1  0  0  0  0
 15 23  1  0  0  0  0
 16 15  2  0  0  0  0
 17 18  2  0  0  0  0
 17 16  1  0  0  0  0
 18 13  1  0  0  0  0
 19 17  1  0  0  0  0
 20 19  1  0  0  0  0
 21 20  1  0  0  0  0
 22 19  2  0  0  0  0
 23 26  2  0  0  0  0
 24 25  1  0  0  0  0
 24 23  1  0  0  0  0
 27 28  2  0  0  0  0
 28 29  1  0  0  0  0
 29 30  1  0  0  0  0
 30 52  1  0  0  0  0
 30 31  2  0  0  0  0
 31 53  1  0  0  0  0
 32 31  1  0  0  0  0
 32 56  1  0  0  0  0
 33 32  2  0  0  0  0
 34 29  2  0  0  0  0
 34 33  1  0  0  0  0
 35 36  1  0  0  0  0
 35 38  2  0  0  0  0
 36 37  1  0  0  0  0
 39 40  1  0  0  0  0
 39  2  1  0  0  0  0
 41 40  1  0  0  0  0
 42 39  2  0  0  0  0
 43  1  1  0  0  0  0
 47 11  1  0  0  0  0
 48 12  1  0  0  0  0
 50 16  1  0  0  0  0
 51 18  1  0  0  0  0
 54 33  1  0  0  0  0
 55 34  1  0  0  0  0
 56 57  1  0  0  0  0
 58 56  1  0  0  0  0
 59 56  1  0  0  0  0
M  END
