
 OpenBabel03101611033D

 58 61  0  0  0  0  0  0  0  0999 V2000
    2.6154    4.4629   -8.3309 C   0  0  0  0  0  0  0  0  0  0  0  0
    3.3955    5.4400   -7.6878 C   0  0  0  0  0  0  0  0  0  0  0  0
    3.3303    5.5676   -6.2947 C   0  0  0  0  0  0  0  0  0  0  0  0
    2.4975    4.7325   -5.5398 C   0  0  0  0  0  0  0  0  0  0  0  0
    1.7237    3.7563   -6.1903 C   0  0  0  0  0  0  0  0  0  0  0  0
    1.7664    3.6003   -7.5972 C   0  0  0  0  0  0  0  0  0  0  0  0
    0.9234    2.5483   -8.2946 C   0  0  0  0  0  0  0  0  0  0  0  0
    0.3320    1.4914   -7.5726 C   0  0  0  0  0  0  0  0  0  0  0  0
   -0.4751    0.5181   -8.1982 C   0  0  0  0  0  0  0  0  0  0  0  0
   -0.6784    0.5705   -9.6053 C   0  0  0  0  0  0  0  0  0  0  0  0
   -0.0682    1.6195  -10.3225 C   0  0  0  0  0  0  0  0  0  0  0  0
    0.7063    2.5871   -9.6852 C   0  0  0  0  0  0  0  0  0  0  0  0
   -1.5217   -0.4390  -10.3547 C   0  0  0  0  0  0  0  0  0  0  0  0
   -2.6184   -1.0908   -9.7472 C   0  0  0  0  0  0  0  0  0  0  0  0
   -3.3980   -2.0198  -10.4580 C   0  0  0  0  0  0  0  0  0  0  0  0
   -3.0837   -2.3049  -11.7936 C   0  0  0  0  0  0  0  0  0  0  0  0
   -2.0072   -1.6681  -12.4252 C   0  0  0  0  0  0  0  0  0  0  0  0
   -1.2369   -0.7381  -11.7063 C   0  0  0  0  0  0  0  0  0  0  0  0
   -1.6855   -1.9787  -13.8424 C   0  0  0  0  0  0  0  0  0  0  0  0
   -2.4297   -2.8750  -14.5269 O   0  0  0  0  0  0  0  0  0  0  0  0
   -2.2335   -3.0882  -15.4503 H   0  0  0  0  0  0  0  0  0  0  0  0
   -0.7468   -1.4259  -14.3979 O   0  0  0  0  0  0  0  0  0  0  0  0
   -4.5521   -2.6916   -9.8052 C   0  0  0  0  0  0  0  0  0  0  0  0
   -5.2996   -3.5804  -10.4956 O   0  0  0  0  0  0  0  0  0  0  0  0
   -6.0540   -4.0266  -10.0851 H   0  0  0  0  0  0  0  0  0  0  0  0
   -4.8319   -2.4453   -8.6406 O   0  0  0  0  0  0  0  0  0  0  0  0
   -0.9941   -0.5707   -7.4293 N   0  0  0  0  0  0  0  0  0  0  0  0
   -1.3883   -0.5089   -6.2364 N   0  0  0  0  0  0  0  0  0  0  0  0
   -1.7491    0.6836   -5.5358 C   0  0  0  0  0  0  0  0  0  0  0  0
   -1.5310    0.7438   -4.1550 C   0  0  0  0  0  0  0  0  0  0  0  0
   -1.8771    1.8875   -3.4335 C   0  0  0  0  0  0  0  0  0  0  0  0
   -2.4560    2.9801   -4.0820 C   0  0  0  0  0  0  0  0  0  0  0  0
   -2.7036    2.9355   -5.4652 C   0  0  0  0  0  0  0  0  0  0  0  0
   -2.3532    1.7793   -6.1868 C   0  0  0  0  0  0  0  0  0  0  0  0
    2.4328    4.8844   -4.0623 C   0  0  0  0  0  0  0  0  0  0  0  0
    3.1785    5.8258   -3.4433 O   0  0  0  0  0  0  0  0  0  0  0  0
    3.1478    5.9375   -2.4825 H   0  0  0  0  0  0  0  0  0  0  0  0
    1.7051    4.1598   -3.3982 O   0  0  0  0  0  0  0  0  0  0  0  0
    4.2862    6.3327   -8.4751 C   0  0  0  0  0  0  0  0  0  0  0  0
    5.0337    7.2687   -7.8500 O   0  0  0  0  0  0  0  0  0  0  0  0
    5.6183    7.8578   -8.3479 H   0  0  0  0  0  0  0  0  0  0  0  0
    4.3481    6.2266   -9.6917 O   0  0  0  0  0  0  0  0  0  0  0  0
    2.6962    4.3796   -9.4011 H   0  0  0  0  0  0  0  0  0  0  0  0
    3.9286    6.3203   -5.7964 H   0  0  0  0  0  0  0  0  0  0  0  0
    1.0806    3.1422   -5.5834 H   0  0  0  0  0  0  0  0  0  0  0  0
    0.5126    1.3874   -6.5190 H   0  0  0  0  0  0  0  0  0  0  0  0
   -0.2093    1.7199  -11.3888 H   0  0  0  0  0  0  0  0  0  0  0  0
    1.1138    3.3697  -10.3024 H   0  0  0  0  0  0  0  0  0  0  0  0
   -2.9003   -0.8636   -8.7334 H   0  0  0  0  0  0  0  0  0  0  0  0
   -3.6815   -3.0206  -12.3443 H   0  0  0  0  0  0  0  0  0  0  0  0
   -0.4009   -0.2678  -12.2030 H   0  0  0  0  0  0  0  0  0  0  0  0
   -1.6961    1.9273   -2.3671 H   0  0  0  0  0  0  0  0  0  0  0  0
   -2.7161    3.8568   -3.5032 H   0  0  0  0  0  0  0  0  0  0  0  0
   -3.3045    4.0461   -6.1276 N   0  0  0  0  0  0  0  0  0  0  0  0
   -2.5558    1.7316   -7.2476 H   0  0  0  0  0  0  0  0  0  0  0  0
   -3.6388    5.1469   -5.4398 O   0  5  0  0  0  0  0  0  0  0  0  0
   -1.0824   -0.0969   -3.6406 H   0  0  0  0  0  0  0  0  0  0  0  0
   -3.5370    4.0055   -7.4471 O   0  5  0  0  0  0  0  0  0  0  0  0
  1  2  2  0  0  0  0
  1  6  1  0  0  0  0
  1 43  1  0  0  0  0
  2  3  1  0  0  0  0
  2 39  1  0  0  0  0
  3  4  2  0  0  0  0
  3 44  1  0  0  0  0
  4  5  1  0  0  0  0
  4 35  1  0  0  0  0
  5  6  2  0  0  0  0
  5 45  1  0  0  0  0
  6  7  1  0  0  0  0
  7  8  2  0  0  0  0
  7 12  1  0  0  0  0
  8  9  1  0  0  0  0
  8 46  1  0  0  0  0
  9 10  2  0  0  0  0
  9 27  1  0  0  0  0
 10 11  1  0  0  0  0
 10 13  1  0  0  0  0
 11 12  2  0  0  0  0
 11 47  1  0  0  0  0
 12 48  1  0  0  0  0
 13 14  2  0  0  0  0
 13 18  1  0  0  0  0
 14 15  1  0  0  0  0
 14 49  1  0  0  0  0
 15 16  2  0  0  0  0
 15 23  1  0  0  0  0
 16 17  1  0  0  0  0
 16 50  1  0  0  0  0
 17 18  2  0  0  0  0
 17 19  1  0  0  0  0
 18 51  1  0  0  0  0
 19 20  1  0  0  0  0
 19 22  2  0  0  0  0
 20 21  1  0  0  0  0
 23 24  1  0  0  0  0
 23 26  2  0  0  0  0
 24 25  1  0  0  0  0
 27 28  2  0  0  0  0
 28 29  1  0  0  0  0
 29 30  2  0  0  0  0
 29 34  1  0  0  0  0
 30 31  1  0  0  0  0
 30 57  1  0  0  0  0
 31 32  2  0  0  0  0
 31 52  1  0  0  0  0
 32 33  1  0  0  0  0
 32 53  1  0  0  0  0
 33 34  2  0  0  0  0
 33 54  1  0  0  0  0
 34 55  1  0  0  0  0
 35 36  1  0  0  0  0
 35 38  2  0  0  0  0
 36 37  1  0  0  0  0
 39 40  1  0  0  0  0
 39 42  2  0  0  0  0
 40 41  1  0  0  0  0
 54 56  1  0  0  0  0
 54 58  1  0  0  0  0
M  CHG  2  56  -1  58  -1
M  END
