
 OpenBabel10101518173D

 58 61  0  0  0  0  0  0  0  0999 V2000
    2.5028    4.4668   -8.2925 C   0  0  0  0  0  0  0  0  0  0  0  0
    3.2579    5.4537   -7.6346 C   0  0  0  0  0  0  0  0  0  0  0  0
    3.1641    5.5805   -6.2428 C   0  0  0  0  0  0  0  0  0  0  0  0
    2.3273    4.7350   -5.5040 C   0  0  0  0  0  0  0  0  0  0  0  0
    1.5790    3.7490   -6.1691 C   0  0  0  0  0  0  0  0  0  0  0  0
    1.6511    3.5937   -7.5749 C   0  0  0  0  0  0  0  0  0  0  0  0
    0.8344    2.5320   -8.2878 C   0  0  0  0  0  0  0  0  0  0  0  0
    0.2490    1.4643   -7.5774 C   0  0  0  0  0  0  0  0  0  0  0  0
   -0.5365    0.4821   -8.2167 C   0  0  0  0  0  0  0  0  0  0  0  0
   -0.7214    0.5367   -9.6264 C   0  0  0  0  0  0  0  0  0  0  0  0
   -0.1159    1.5966  -10.3319 C   0  0  0  0  0  0  0  0  0  0  0  0
    0.6361    2.5728   -9.6809 C   0  0  0  0  0  0  0  0  0  0  0  0
   -1.5396   -0.4823  -10.3906 C   0  0  0  0  0  0  0  0  0  0  0  0
   -2.6353   -1.1515   -9.8004 C   0  0  0  0  0  0  0  0  0  0  0  0
   -3.3915   -2.0893  -10.5250 C   0  0  0  0  0  0  0  0  0  0  0  0
   -3.0545   -2.3657  -11.8568 C   0  0  0  0  0  0  0  0  0  0  0  0
   -1.9783   -1.7118  -12.4712 C   0  0  0  0  0  0  0  0  0  0  0  0
   -1.2316   -0.7731  -11.7388 C   0  0  0  0  0  0  0  0  0  0  0  0
   -1.6322   -2.0135  -13.8847 C   0  0  0  0  0  0  0  0  0  0  0  0
   -2.3537   -2.9182  -14.5821 O   0  0  0  0  0  0  0  0  0  0  0  0
   -2.1413   -3.1259  -15.5032 H   0  0  0  0  0  0  0  0  0  0  0  0
   -0.6937   -1.4457  -14.4252 O   0  0  0  0  0  0  0  0  0  0  0  0
   -4.5450   -2.7793   -9.8905 C   0  0  0  0  0  0  0  0  0  0  0  0
   -5.2702   -3.6764  -10.5941 O   0  0  0  0  0  0  0  0  0  0  0  0
   -6.0239   -4.1344  -10.1957 H   0  0  0  0  0  0  0  0  0  0  0  0
   -4.8448   -2.5407   -8.7292 O   0  0  0  0  0  0  0  0  0  0  0  0
   -1.0497   -0.6176   -7.4590 N   0  0  0  0  0  0  0  0  0  0  0  0
   -1.4515   -0.5692   -6.2680 N   0  0  0  0  0  0  0  0  0  0  0  0
   -1.8276    0.6143   -5.5609 C   0  0  0  0  0  0  0  0  0  0  0  0
   -1.6086    0.6725   -4.1802 C   0  0  0  0  0  0  0  0  0  0  0  0
   -1.9675    1.8097   -3.4511 C   0  0  0  0  0  0  0  0  0  0  0  0
   -2.5660    2.9079   -4.0935 C   0  0  0  0  0  0  0  0  0  0  0  0
   -2.8060    2.8415   -5.4772 C   0  0  0  0  0  0  0  0  0  0  0  0
   -2.4458    1.7039   -6.2046 C   0  0  0  0  0  0  0  0  0  0  0  0
    2.2310    4.8865   -4.0282 C   0  0  0  0  0  0  0  0  0  0  0  0
    2.9522    5.8373   -3.3948 O   0  0  0  0  0  0  0  0  0  0  0  0
    2.9005    5.9491   -2.4349 H   0  0  0  0  0  0  0  0  0  0  0  0
    1.4989    4.1532   -3.3784 O   0  0  0  0  0  0  0  0  0  0  0  0
    4.1523    6.3577   -8.4047 C   0  0  0  0  0  0  0  0  0  0  0  0
    4.8756    7.3031   -7.7655 O   0  0  0  0  0  0  0  0  0  0  0  0
    5.4622    7.8995   -8.2521 H   0  0  0  0  0  0  0  0  0  0  0  0
    4.2391    6.2523   -9.6198 O   0  0  0  0  0  0  0  0  0  0  0  0
    2.6048    4.3841   -9.3610 H   0  0  0  0  0  0  0  0  0  0  0  0
    3.7428    6.3409   -5.7332 H   0  0  0  0  0  0  0  0  0  0  0  0
    0.9316    3.1268   -5.5750 H   0  0  0  0  0  0  0  0  0  0  0  0
    0.4189    1.3597   -6.5223 H   0  0  0  0  0  0  0  0  0  0  0  0
   -0.2438    1.6986  -11.3997 H   0  0  0  0  0  0  0  0  0  0  0  0
    1.0410    3.3638  -10.2893 H   0  0  0  0  0  0  0  0  0  0  0  0
   -2.9345   -0.9315   -8.7900 H   0  0  0  0  0  0  0  0  0  0  0  0
   -3.6341   -3.0881  -12.4179 H   0  0  0  0  0  0  0  0  0  0  0  0
   -0.3954   -0.2894  -12.2223 H   0  0  0  0  0  0  0  0  0  0  0  0
   -1.1481   -0.1645   -3.6704 H   0  0  0  0  0  0  0  0  0  0  0  0
   -1.7775    1.8313   -2.3859 H   0  0  0  0  0  0  0  0  0  0  0  0
   -3.2745    3.6684   -5.9951 H   0  0  0  0  0  0  0  0  0  0  0  0
   -2.6549    1.6747   -7.2654 H   0  0  0  0  0  0  0  0  0  0  0  0
   -2.9305    4.0693   -3.3513 N   0  0  0  0  0  0  0  0  0  0  0  0
   -2.7020    4.1312   -2.0319 O   0  0  0  0  0  0  0  0  0  0  0  0
   -3.5022    5.1151   -3.9644 O   0  0  0  0  0  0  0  0  0  0  0  0
  1  2  2  0  0  0  0
  1  6  1  0  0  0  0
  1 43  1  0  0  0  0
  2  3  1  0  0  0  0
  2 39  1  0  0  0  0
  3  4  2  0  0  0  0
  3 44  1  0  0  0  0
  4  5  1  0  0  0  0
  4 35  1  0  0  0  0
  5  6  2  0  0  0  0
  5 45  1  0  0  0  0
  6  7  1  0  0  0  0
  7  8  2  0  0  0  0
  7 12  1  0  0  0  0
  8  9  1  0  0  0  0
  8 46  1  0  0  0  0
  9 10  2  0  0  0  0
  9 27  1  0  0  0  0
 10 11  1  0  0  0  0
 10 13  1  0  0  0  0
 11 12  2  0  0  0  0
 11 47  1  0  0  0  0
 12 48  1  0  0  0  0
 13 14  2  0  0  0  0
 13 18  1  0  0  0  0
 14 15  1  0  0  0  0
 14 49  1  0  0  0  0
 15 16  2  0  0  0  0
 15 23  1  0  0  0  0
 16 17  1  0  0  0  0
 16 50  1  0  0  0  0
 17 18  2  0  0  0  0
 17 19  1  0  0  0  0
 18 51  1  0  0  0  0
 19 20  1  0  0  0  0
 19 22  2  0  0  0  0
 20 21  1  0  0  0  0
 23 24  1  0  0  0  0
 23 26  2  0  0  0  0
 24 25  1  0  0  0  0
 27 28  2  0  0  0  0
 28 29  1  0  0  0  0
 29 30  2  0  0  0  0
 29 34  1  0  0  0  0
 30 31  1  0  0  0  0
 30 52  1  0  0  0  0
 31 32  2  0  0  0  0
 31 53  1  0  0  0  0
 32 33  1  0  0  0  0
 32 56  1  0  0  0  0
 33 34  2  0  0  0  0
 33 54  1  0  0  0  0
 34 55  1  0  0  0  0
 35 36  1  0  0  0  0
 35 38  2  0  0  0  0
 36 37  1  0  0  0  0
 39 40  1  0  0  0  0
 39 42  2  0  0  0  0
 40 41  1  0  0  0  0
 56 57  1  0  0  0  0
 56 58  1  0  0  0  0
M  END
